%nprocshared=8
%mem=1GB
%chk=CF3-c1-1sp-.chk
#p b3lyp/6-311+g(2d,p) pop=(full,nboread) stable=opt

CF3-c1-1sp- 1

-1 1
 C                  0.00000000    0.00000000    0.32594100
 F                  0.00000000    1.26058200   -0.07243100
 F                  1.09169600   -0.63029100   -0.07243100
 F                 -1.09169600   -0.63029100   -0.07243100

$nbo bndidx $end 

