%nprocshared=8
%mem=1GB
%chk=CCN-c1-1sp.chk
#p b3lyp/6-311+g(2d,p) pop=(full,nboread) stable=opt

CCN-c1-1sp 1

0 2
 C                 -0.30745900   -0.00000200    0.00007200
 C                 -1.06018600   -1.29325000    0.00001200
 H                 -0.39539300   -2.15558800    0.00148900
 H                 -1.71380800   -1.35802800    0.87794100
 H                 -1.71136300   -1.35935700   -0.87967700
 C                 -1.05999300    1.29335700   -0.00001800
 H                 -1.71279900    1.35860000   -0.87854300
 H                 -1.71197600    1.35920700    0.87907200
 H                 -0.39507600    2.15560100   -0.00062000
 C                  1.08009200   -0.00015300    0.00001300
 N                  2.24652700   -0.00002000   -0.00001800

$nbo bndidx $end 

