%nprocshared=8
%mem=1GB
%chk=CFM-c1-1sp.chk
#p b3lyp/6-311+g(2d,p) pop=(full,nboread) stable=opt

CFM-c1-1sp 1

0 2
 C                 -0.30408300    0.05103800    0.00000000
 F                  0.05733800    0.73839500   -1.09450800
 F                  0.05733800    0.73839500    1.09450800
 C                  0.05733800   -1.39011400   -0.00000000
 H                 -0.35011000   -1.87170300   -0.88813300
 H                  1.14860100   -1.51323800   -0.00000000
 H                 -0.35011000   -1.87170300    0.88813300

$nbo bndidx $end 

