%nprocshared=8
%mem=1GB
%chk=CH3-c1-1sp.chk
#p b3lyp/6-311+g(2d,p) pop=(full,nboread) stable=opt

CH3-c1-1sp 1

0 2
 C                  0.00000000    0.00000000    0.00001600
 H                 -0.00000000    1.07962800   -0.00003200
 H                 -0.93498500   -0.53981400   -0.00003200
 H                  0.93498500   -0.53981400   -0.00003200

$nbo bndidx $end 

