%nprocshared=8
%mem=1GB
%chk=CHF-c1-1sp.chk
#p b3lyp/6-311+g(2d,p) pop=(full,nboread) stable=opt

CHF-c1-1sp 1

0 2
 C                  0.02886600    0.65717700   -0.00000000
 H                 -0.21649800    1.11372400    0.95353400
 H                 -0.21649800    1.11372400   -0.95353400
 F                  0.02886600   -0.68561200   -0.00000000

$nbo bndidx $end 

