%nprocshared=8
%mem=1GB
%chk=Et0-c1-1sp.chk
#p b3lyp/6-311+g(2d,p) pop=(full,nboread) stable=opt

Et0-c1-1sp 1

0 2
 C                  0.01110800    0.79539000   -0.00000000
 H                 -0.07071400    1.35330800   -0.92751800
 H                 -0.07071400    1.35330800    0.92751800
 C                  0.01110800   -0.69415800    0.00000000
 H                  0.51043600   -1.10183000    0.88765400
 H                 -1.01274200   -1.11035000    0.00000000
 H                  0.51043600   -1.10183000   -0.88765400

$nbo bndidx $end 

