%nprocshared=8
%mem=1GB
%chk=MF3-c1-1sp.chk
#p b3lyp/6-311+g(2d,p) pop=(full,nboread) stable=opt

MF3-c1-1sp 1

0 2
 C                 -1.49559800    0.00000000   -0.01609400
 H                 -2.01812000    0.94240200    0.03752700
 H                 -2.01812000   -0.94240200    0.03752700
 C                 -0.02076400    0.00000000   -0.00877300
 F                  0.48467800    0.00000000    1.25517200
 F                  0.48735000   -1.09005200   -0.62346700
 F                  0.48735000    1.09005200   -0.62346700

$nbo bndidx $end 

