%nprocshared=8
%mem=1GB
%chk=Py0-c1-1sp.chk
#p b3lyp/6-311+g(2d,p) pop=(full,nboread) stable=opt

Py0-c1-1sp 1

0 2
 C                 -0.00000600    1.39416300    0.00000000
 C                 -1.21318600    0.74608600   -0.00000200
 C                 -1.14450200   -0.65876400    0.00000200
 N                  0.00000300   -1.34815300    0.00000100
 C                  1.14450900   -0.65875500   -0.00000300
 C                  1.21318200    0.74609000    0.00000200
 H                 -2.17120300    1.25758600   -0.00000200
 H                 -2.06281700   -1.24552000    0.00000200
 H                  2.06282300   -1.24551000    0.00000000
 H                  2.17119100    1.25760300    0.00000300

$nbo bndidx $end 

