%nprocshared=8
%mem=1GB
#p aug-cc-pvtz m062x pop=(full,nboread)

CF3-c1-1ostdsp 1

0 2
 C                  0.00000000    0.00000000    0.32594100
 F                  0.00000000    1.26058200   -0.07243100
 F                  1.09169600   -0.63029100   -0.07243100
 F                 -1.09169600   -0.63029100   -0.07243100

$nbo bndidx $end

