%nprocshared=28
%mem=56GB
%chk=X4t-1-c1-1sp.chk
#p b3lyp/6-311+g(2d,p) pop=(full,nboread) stable=opt g09def

X4t-1-c1-1sp 1 3

0 1
 C                 -1.42417300    2.11888500    0.00012700
 N                 -0.21250800    2.61217900   -0.00003700
 C                  0.80986200    1.72740500   -0.00011600
 C                  0.71915500    0.34596500    0.00003400
 C                 -0.61252800   -0.19945400    0.00007300
 C                 -0.97810100   -1.57693800    0.00001600
 C                 -2.29066300   -1.97809800   -0.00006200
 C                 -3.34538800   -1.04373100   -0.00005300
 C                 -3.04662900    0.29058500    0.00004900
 C                 -1.70232000    0.73503800    0.00010500
 H                 -2.25107700    2.82587200    0.00026000
 H                 -0.22376900   -2.34007600    0.00004600
 H                 -2.51714800   -3.03813100   -0.00010800
 H                 -4.37430300   -1.38225700   -0.00014600
 H                  1.78554200    2.19641700   -0.00030600
 H                 -3.83462800    1.03564400    0.00007700
 C                  2.08740900   -0.39812000   -0.00000200
 C                  2.05491200   -1.93777100    0.00088600
 C                  2.87916200    0.01901300    1.26384200
 C                  2.87827000    0.01778200   -1.26479500
 H                  1.57343600   -2.34515800    0.89084300
 H                  3.08594800   -2.29939400    0.00130300
 H                  1.57385300   -2.34622700   -0.88880000
 H                  2.34230000   -0.27082900    2.17027600
 H                  3.85276400   -0.47821400    1.27431000
 H                  3.05460700    1.09366700    1.31059500
 H                  3.05372900    1.09239900   -1.31254200
 H                  3.85181300   -0.47955500   -1.27559500
 H                  2.34067700   -0.27277300   -2.17057000

$nbo bndidx $end 

